lig_CHEMBL3402745_200_5
                    3D
 Schrodinger Suite 2022-3.
 45 47  0  0  1  0            999 V2000
  -16.4451   25.1824  101.7853 H   0  0  0  0  0  0
  -16.9413   25.0957  100.8308 C   0  0  0  0  0  0
  -18.0084   25.8822  100.5657 C   0  0  0  0  0  0
  -18.3563   26.5785  101.3107 H   0  0  0  0  0  0
  -18.6938   25.7471   99.2887 C   0  0  0  0  0  0
  -19.8771   26.5568   98.9015 C   0  0  0  0  0  0
  -20.2122   27.7200   99.6284 C   0  0  0  0  0  0
  -19.6000   28.0769  100.4389 H   0  0  0  0  0  0
  -21.3405   28.4760   99.2566 C   0  0  0  0  0  0
  -21.6474   29.6057   99.9368 F   0  0  0  0  0  0
  -22.1337   28.0706   98.1643 C   0  0  0  0  0  0
  -22.9963   28.6537   97.8826 H   0  0  0  0  0  0
  -21.7983   26.9124   97.4350 C   0  0  0  0  0  0
  -22.5527   26.5264   96.3793 F   0  0  0  0  0  0
  -20.6745   26.1514   97.8039 C   0  0  0  0  0  0
  -20.4389   25.2631   97.2373 H   0  0  0  0  0  0
  -18.2581   24.8789   98.4341 N   0  0  0  0  0  0
  -17.1542   24.0930   98.7002 N   0  0  0  0  0  0
  -16.7942   23.1844   97.6086 C   0  0  0  0  0  0
  -15.7232   22.9763   97.5941 H   0  0  0  0  0  0
  -16.9919   23.6712   96.6509 H   0  0  0  0  0  0
  -17.5707   21.8816   97.6617 C   0  0  0  0  0  0
  -16.9862   20.7291   98.2210 C   0  0  0  0  0  0
  -15.9785   20.7652   98.6101 H   0  0  0  0  0  0
  -17.7172   19.5287   98.2826 C   0  0  0  0  0  0
  -17.2731   18.6421   98.7082 H   0  0  0  0  0  0
  -19.0343   19.4807   97.7899 C   0  0  0  0  0  0
  -19.5613   18.5448   97.8710 H   0  0  0  0  0  0
  -19.6345   20.6338   97.2324 C   0  0  0  0  0  0
  -20.9753   20.6867   96.7663 N   0  0  0  0  0  0
  -21.3412   21.6063   96.5377 H   0  0  0  0  0  0
  -21.9128   19.6662   96.7066 C   0  0  0  0  0  0
  -21.7192   18.4570   96.8359 O   0  0  0  0  0  0
  -23.1034   20.2197   96.4560 O   0  0  0  0  0  0
  -24.2744   19.4175   96.4336 C   0  0  0  0  0  0
  -24.1647   18.5303   97.0580 H   0  0  0  0  0  0
  -24.4634   19.0797   95.4139 H   0  0  0  0  0  0
  -25.4530   20.2494   96.9447 C   0  0  0  0  0  0
  -26.3719   19.6640   96.9400 H   0  0  0  0  0  0
  -25.6105   21.1314   96.3247 H   0  0  0  0  0  0
  -25.2845   20.5785   97.9688 H   0  0  0  0  0  0
  -18.8933   21.8301   97.1762 C   0  0  0  0  0  0
  -19.3446   22.7242   96.7679 H   0  0  0  0  0  0
  -16.4254   24.1419   99.8512 C   0  0  0  0  0  0
  -15.4191   23.4555  100.0348 O   0  0  0  0  0  0
  1  2  1  0  0  0
  2 44  1  0  0  0
  2  3  2  0  0  0
  3  4  1  0  0  0
  3  5  1  0  0  0
  5  6  1  0  0  0
  5 17  2  0  0  0
  6 15  1  0  0  0
  6  7  2  0  0  0
  7  8  1  0  0  0
  7  9  1  0  0  0
  9 10  1  0  0  0
  9 11  2  0  0  0
 11 12  1  0  0  0
 11 13  1  0  0  0
 13 14  1  0  0  0
 13 15  2  0  0  0
 15 16  1  0  0  0
 17 18  1  0  0  0
 18 19  1  0  0  0
 18 44  1  0  0  0
 19 20  1  0  0  0
 19 21  1  0  0  0
 19 22  1  0  0  0
 22 42  1  0  0  0
 22 23  2  0  0  0
 23 24  1  0  0  0
 23 25  1  0  0  0
 25 26  1  0  0  0
 25 27  2  0  0  0
 27 28  1  0  0  0
 27 29  1  0  0  0
 29 30  1  0  0  0
 29 42  2  0  0  0
 30 31  1  0  0  0
 30 32  1  0  0  0
 32 33  2  0  0  0
 32 34  1  0  0  0
 34 35  1  0  0  0
 35 36  1  0  0  0
 35 37  1  0  0  0
 35 38  1  0  0  0
 38 39  1  0  0  0
 38 40  1  0  0  0
 38 41  1  0  0  0
 42 43  1  0  0  0
 44 45  2  0  0  0
M  END
> <s_m_source_file>
ligprep_cmet.smi

> <i_m_source_file_index>
2

> <i_lp_mmshare_version>
53161

> <i_f3d_flags>
0

> <s_epik_input>
RmMoW2NIXTEpW2NIXWMoRilbY0hdYzEtYzJbY0hdW2NIXWMoPU8pbihuMilbQ0gyXWMzW2NIXVtjSF1bY0hdYyhbY0hdMylbTkhdQyg9TylPW0NIMl1bQ0gzXQ==

> <s_epik_cmdline>
J2VwaWtfcHl0aG9uJywgJy1waHQnLCAnMC4wJywgJy1waCcsICc3LjQnLCAnLXRuJywgJzgnLCAnLW1hJywgJzUwMCcsICctaW1hZScsICc8aW5maWxlLm1hZT4nLCAnLW9tYWUnLCAnPG91dGZpbGUubWFlPic=

> <r_lp_tautomer_probability>
1

> <r_epik_Ionization_Penalty>
  0.0000

> <r_epik_Ionization_Penalty_Charging>
  0.0000

> <r_epik_Ionization_Penalty_Neutral>
  0.0000

> <r_epik_State_Penalty>
 -0.0000

> <r_epik_Charging_Adjusted_Penalty>
1.65007e-08

> <i_epik_Tot_Q>
0

> <i_epik_Tot_abs_Q>
0

> <s_epik_Chemistry_Notes>
This compound has an ester and may undergo hydrolysis at high or low pH.

> <s_lp_Force_Field>
S-OPLS

> <r_lp_Energy>
49.7099

> <b_lp_Chiralities_Consistent>
1

> <s_lp_Variant>
lig_CHEMBL3402745_200_5-1

> <s_i_glide_gridfile>
glide-grid_cMET-4R1Y

> <i_i_glide_lignum>
2

> <i_i_glide_rotatable_bonds>
7

> <r_i_docking_score>
-10.9137733390078

> <r_i_glide_ligand_efficiency>
-0.389777619250279

> <r_i_glide_ligand_efficiency_sa>
-1.18359441878469

> <r_i_glide_ligand_efficiency_ln>
-2.51921932895232

> <r_i_glide_gscore>
-10.9137733390078

> <r_i_glide_lipo>
-4.05145791885411

> <r_i_glide_hbond>
-0.763449289347061

> <r_i_glide_metal>
-0

> <r_i_glide_rewards>
-2.39973218796629

> <r_i_glide_evdw>
-58.2625503540039

> <r_i_glide_ecoul>
-10.9745826721191

> <r_i_glide_erotb>
0.916906915363001

> <r_i_glide_esite>
-0.0567259396852696

> <r_i_glide_emodel>
-114.177113987074

> <r_i_glide_energy>
-69.237133026123

> <r_i_glide_einternal>
13.4736356735229

> <i_i_glide_confnum>
622

> <i_i_glide_posenum>
137

> <r_i_glide_eff_state_penalty>
-0

> <r_i_glide_rmsd>
0.101222433437279

> <s_glide_core_constrain_type>
snapped_core_restrain

$$$$
lig_CHEMBL3402744_300_4
                    3D
 Schrodinger Suite 2022-3.
 42 44  0  0  1  0            999 V2000
  -16.6081   25.0478  101.7835 H   0  0  0  0  0  0
  -17.0869   25.0418  100.8147 C   0  0  0  0  0  0
  -18.0950   25.9010  100.5443 C   0  0  0  0  0  0
  -18.3961   26.6034  101.3020 H   0  0  0  0  0  0
  -18.7259   25.8867   99.2283 C   0  0  0  0  0  0
  -19.7593   26.8771   98.7823 C   0  0  0  0  0  0
  -20.2574   27.8550   99.6755 C   0  0  0  0  0  0
  -19.9878   27.8622  100.7161 H   0  0  0  0  0  0
  -21.1019   28.8845   99.2114 C   0  0  0  0  0  0
  -21.5067   29.8626  100.0556 F   0  0  0  0  0  0
  -21.4804   28.9298   97.8549 C   0  0  0  0  0  0
  -22.1034   29.7376   97.4971 H   0  0  0  0  0  0
  -21.0019   27.9528   96.9608 C   0  0  0  0  0  0
  -21.3117   28.0263   95.6432 F   0  0  0  0  0  0
  -20.1576   26.9212   97.4222 C   0  0  0  0  0  0
  -19.7872   26.2079   96.7029 H   0  0  0  0  0  0
  -18.3261   25.0040   98.3661 N   0  0  0  0  0  0
  -17.2691   24.1485   98.6416 N   0  0  0  0  0  0
  -16.8750   23.2873   97.5259 C   0  0  0  0  0  0
  -15.7948   23.1314   97.5062 H   0  0  0  0  0  0
  -17.0978   23.7769   96.5760 H   0  0  0  0  0  0
  -17.5865   21.9529   97.5901 C   0  0  0  0  0  0
  -16.9650   20.8264   98.1632 C   0  0  0  0  0  0
  -15.9562   20.8993   98.5455 H   0  0  0  0  0  0
  -17.6678   19.6109   98.2600 C   0  0  0  0  0  0
  -17.1918   18.7505   98.7069 H   0  0  0  0  0  0
  -18.9927   19.5163   97.7886 C   0  0  0  0  0  0
  -19.5031   18.5714   97.8847 H   0  0  0  0  0  0
  -19.6264   20.6510   97.2258 C   0  0  0  0  0  0
  -20.9689   20.6864   96.7719 N   0  0  0  0  0  0
  -21.3384   21.6028   96.5336 H   0  0  0  0  0  0
  -21.9034   19.6655   96.7240 C   0  0  0  0  0  0
  -21.7122   18.4544   96.8360 O   0  0  0  0  0  0
  -23.0955   20.2191   96.4822 O   0  0  0  0  0  0
  -24.2396   19.3870   96.4331 C   0  0  0  0  0  0
  -25.1215   19.9551   96.1366 H   0  0  0  0  0  0
  -24.4332   18.9331   97.4054 H   0  0  0  0  0  0
  -24.0877   18.5890   95.7084 H   0  0  0  0  0  0
  -18.9132   21.8609   97.1347 C   0  0  0  0  0  0
  -19.3923   22.7409   96.7312 H   0  0  0  0  0  0
  -16.5846   24.1066   99.8188 C   0  0  0  0  0  0
  -15.6169   23.3681  100.0141 O   0  0  0  0  0  0
  1  2  1  0  0  0
  2 41  1  0  0  0
  2  3  2  0  0  0
  3  4  1  0  0  0
  3  5  1  0  0  0
  5  6  1  0  0  0
  5 17  2  0  0  0
  6 15  1  0  0  0
  6  7  2  0  0  0
  7  8  1  0  0  0
  7  9  1  0  0  0
  9 10  1  0  0  0
  9 11  2  0  0  0
 11 12  1  0  0  0
 11 13  1  0  0  0
 13 14  1  0  0  0
 13 15  2  0  0  0
 15 16  1  0  0  0
 17 18  1  0  0  0
 18 19  1  0  0  0
 18 41  1  0  0  0
 19 20  1  0  0  0
 19 21  1  0  0  0
 19 22  1  0  0  0
 22 39  1  0  0  0
 22 23  2  0  0  0
 23 24  1  0  0  0
 23 25  1  0  0  0
 25 26  1  0  0  0
 25 27  2  0  0  0
 27 28  1  0  0  0
 27 29  1  0  0  0
 29 30  1  0  0  0
 29 39  2  0  0  0
 30 31  1  0  0  0
 30 32  1  0  0  0
 32 33  2  0  0  0
 32 34  1  0  0  0
 34 35  1  0  0  0
 35 36  1  0  0  0
 35 37  1  0  0  0
 35 38  1  0  0  0
 39 40  1  0  0  0
 41 42  2  0  0  0
M  END
> <s_m_source_file>
ligprep_cmet.smi

> <i_m_source_file_index>
1

> <i_lp_mmshare_version>
53161

> <i_f3d_flags>
0

> <s_epik_input>
RmMoW2NIXTEpW2NIXWMoRilbY0hdYzEtYzJbY0hdW2NIXWMoPU8pbihuMilbQ0gyXWMzW2NIXVtjSF1bY0hdYyhbY0hdMylbTkhdQyg9TylPW0NIM10=

> <s_epik_cmdline>
J2VwaWtfcHl0aG9uJywgJy1waHQnLCAnMC4wJywgJy1waCcsICc3LjQnLCAnLXRuJywgJzgnLCAnLW1hJywgJzUwMCcsICctaW1hZScsICc8aW5maWxlLm1hZT4nLCAnLW9tYWUnLCAnPG91dGZpbGUubWFlPic=

> <r_lp_tautomer_probability>
1

> <r_epik_Ionization_Penalty>
  0.0000

> <r_epik_Ionization_Penalty_Charging>
  0.0000

> <r_epik_Ionization_Penalty_Neutral>
  0.0000

> <r_epik_State_Penalty>
 -0.0000

> <r_epik_Charging_Adjusted_Penalty>
1.65007e-08

> <i_epik_Tot_Q>
0

> <i_epik_Tot_abs_Q>
0

> <s_epik_Chemistry_Notes>
This compound has an ester and may undergo hydrolysis at high or low pH.

> <s_lp_Force_Field>
S-OPLS

> <r_lp_Energy>
48.8799

> <b_lp_Chiralities_Consistent>
1

> <s_lp_Variant>
lig_CHEMBL3402744_300_4-1

> <s_i_glide_gridfile>
glide-grid_cMET-4R1Y

> <i_i_glide_lignum>
1

> <i_i_glide_rotatable_bonds>
6

> <r_i_docking_score>
-10.7101358558001

> <r_i_glide_ligand_efficiency>
-0.396671698362968

> <r_i_glide_ligand_efficiency_sa>
-1.19001509378154

> <r_i_glide_ligand_efficiency_ln>
-2.49314305684096

> <r_i_glide_gscore>
-10.7101358558001

> <r_i_glide_lipo>
-3.91662509742831

> <r_i_glide_hbond>
-0.693471342956087

> <r_i_glide_metal>
-0

> <r_i_glide_rewards>
-2.519462273926

> <r_i_glide_evdw>
-52.9288101196289

> <r_i_glide_ecoul>
-11.3752784729004

> <r_i_glide_erotb>
0.839878606526799

> <r_i_glide_esite>
-0.0677234711000432

> <r_i_glide_emodel>
-89.5944025279199

> <r_i_glide_energy>
-64.3040885925293

> <r_i_glide_einternal>
0.24456162750721

> <i_i_glide_confnum>
145

> <i_i_glide_posenum>
53

> <r_i_glide_eff_state_penalty>
-0

> <r_i_glide_rmsd>
0.0711253990074434

> <s_glide_core_constrain_type>
snapped_core_restrain

$$$$
lig_CHEMBL3402754_40_14
                    3D
 Schrodinger Suite 2022-3.
 45 48  0  0  1  0            999 V2000
  -16.5418   25.2744  101.7336 H   0  0  0  0  0  0
  -17.0533   25.1909  100.7869 C   0  0  0  0  0  0
  -18.1177   25.9872  100.5385 C   0  0  0  0  0  0
  -18.4480   26.6865  101.2858 H   0  0  0  0  0  0
  -18.8269   25.8657   99.2733 C   0  0  0  0  0  0
  -20.0072   26.6898   98.9069 C   0  0  0  0  0  0
  -20.3108   27.8620   99.6339 C   0  0  0  0  0  0
  -19.6828   28.2099  100.4351 H   0  0  0  0  0  0
  -21.4234   28.6435   99.2686 C   0  0  0  0  0  0
  -21.6992   29.7815   99.9475 F   0  0  0  0  0  0
  -22.2382   28.2529   98.1879 C   0  0  0  0  0  0
  -23.0900   28.8562   97.9107 H   0  0  0  0  0  0
  -21.9359   27.0841   97.4628 C   0  0  0  0  0  0
  -22.7073   26.7129   96.4141 F   0  0  0  0  0  0
  -20.8236   26.3002   97.8199 C   0  0  0  0  0  0
  -20.6104   25.4089   97.2511 H   0  0  0  0  0  0
  -18.4085   25.0028   98.4053 N   0  0  0  0  0  0
  -17.3013   24.2146   98.6492 N   0  0  0  0  0  0
  -16.9443   23.3352   97.5352 C   0  0  0  0  0  0
  -15.8636   23.1930   97.4734 H   0  0  0  0  0  0
  -17.2185   23.8034   96.5879 H   0  0  0  0  0  0
  -17.6352   21.9890   97.6390 C   0  0  0  0  0  0
  -16.9745   20.9249   98.2889 C   0  0  0  0  0  0
  -15.9843   21.0702   98.6965 H   0  0  0  0  0  0
  -17.5877   19.6636   98.3852 C   0  0  0  0  0  0
  -17.0738   18.8390   98.8562 H   0  0  0  0  0  0
  -18.8769   19.4873   97.8692 C   0  0  0  0  0  0
  -19.3215   18.5054   97.9504 H   0  0  0  0  0  0
  -19.5661   20.5449   97.2271 C   0  0  0  0  0  0
  -20.8867   20.2085   96.6701 C   0  0  0  0  0  0
  -21.3089   20.9691   95.6827 N   0  0  0  0  0  0
  -22.6461   21.0691   95.5473 C   0  0  0  0  0  0
  -22.9497   21.8133   94.8351 H   0  0  0  0  0  0
  -23.5258   20.1367   96.1103 C   0  0  0  0  0  0
  -25.0097   20.1446   95.8205 C   0  0  0  0  0  0
  -25.5764   19.8067   96.6889 H   0  0  0  0  0  0
  -25.2368   19.4870   94.9824 H   0  0  0  0  0  0
  -25.3302   21.1552   95.5713 H   0  0  0  0  0  0
  -22.9188   19.1603   96.9108 C   0  0  0  0  0  0
  -23.4934   18.3591   97.3493 H   0  0  0  0  0  0
  -21.6101   19.2305   97.2352 N   0  0  0  0  0  0
  -18.9341   21.8034   97.1093 C   0  0  0  0  0  0
  -19.4400   22.6203   96.6147 H   0  0  0  0  0  0
  -16.5701   24.2267   99.8008 C   0  0  0  0  0  0
  -15.5935   23.4957   99.9811 O   0  0  0  0  0  0
  1  2  1  0  0  0
  2 44  1  0  0  0
  2  3  2  0  0  0
  3  4  1  0  0  0
  3  5  1  0  0  0
  5  6  1  0  0  0
  5 17  2  0  0  0
  6 15  1  0  0  0
  6  7  2  0  0  0
  7  8  1  0  0  0
  7  9  1  0  0  0
  9 10  1  0  0  0
  9 11  2  0  0  0
 11 12  1  0  0  0
 11 13  1  0  0  0
 13 14  1  0  0  0
 13 15  2  0  0  0
 15 16  1  0  0  0
 17 18  1  0  0  0
 18 19  1  0  0  0
 18 44  1  0  0  0
 19 20  1  0  0  0
 19 21  1  0  0  0
 19 22  1  0  0  0
 22 42  1  0  0  0
 22 23  2  0  0  0
 23 24  1  0  0  0
 23 25  1  0  0  0
 25 26  1  0  0  0
 25 27  2  0  0  0
 27 28  1  0  0  0
 27 29  1  0  0  0
 29 30  1  0  0  0
 29 42  2  0  0  0
 30 41  1  0  0  0
 30 31  2  0  0  0
 31 32  1  0  0  0
 32 33  1  0  0  0
 32 34  2  0  0  0
 34 35  1  0  0  0
 34 39  1  0  0  0
 35 36  1  0  0  0
 35 37  1  0  0  0
 35 38  1  0  0  0
 39 40  1  0  0  0
 39 41  2  0  0  0
 42 43  1  0  0  0
 44 45  2  0  0  0
M  END
> <s_m_source_file>
ligprep_cmet.smi

> <i_m_source_file_index>
10

> <i_lp_mmshare_version>
53161

> <i_f3d_flags>
0

> <s_epik_input>
RmMoW2NIXTEpW2NIXWMoRilbY0hdYzEtYzJbY0hdW2NIXWMoPU8pbihuMilbQ0gyXWMzW2NIXVtjSF1bY0hdYyhbY0hdMyktYzRuW2NIXWMoW0NIM10pW2NIXW40

> <s_epik_cmdline>
J2VwaWtfcHl0aG9uJywgJy1waHQnLCAnMC4wJywgJy1waCcsICc3LjQnLCAnLXRuJywgJzgnLCAnLW1hJywgJzUwMCcsICctaW1hZScsICc8aW5maWxlLm1hZT4nLCAnLW9tYWUnLCAnPG91dGZpbGUubWFlPic=

> <r_lp_tautomer_probability>
1

> <r_epik_Ionization_Penalty>
  0.0000

> <r_epik_Ionization_Penalty_Charging>
  0.0000

> <r_epik_Ionization_Penalty_Neutral>
  0.0000

> <r_epik_State_Penalty>
 -0.0000

> <r_epik_Charging_Adjusted_Penalty>
1.65007e-08

> <i_epik_Tot_Q>
0

> <i_epik_Tot_abs_Q>
0

> <s_lp_Force_Field>
S-OPLS

> <r_lp_Energy>
61.4146

> <b_lp_Chiralities_Consistent>
1

> <s_lp_Variant>
lig_CHEMBL3402754_40_14-1

> <s_i_glide_gridfile>
glide-grid_cMET-4R1Y

> <i_i_glide_lignum>
10

> <i_i_glide_rotatable_bonds>
4

> <r_i_docking_score>
-8.99431741028149

> <r_i_glide_ligand_efficiency>
-0.310148876216603

> <r_i_glide_ligand_efficiency_sa>
-0.952875609798289

> <r_i_glide_ligand_efficiency_ln>
-2.05947061074389

> <r_i_glide_gscore>
-8.99431741028149

> <r_i_glide_lipo>
-4.3214235510944

> <r_i_glide_hbond>
-0.274857919110459

> <r_i_glide_metal>
-0

> <r_i_glide_rewards>
-2.53636593927382

> <r_i_glide_evdw>
-30.6704521179199

> <r_i_glide_ecoul>
-5.41065740585327

> <r_i_glide_erotb>
0.51191149877136

> <r_i_glide_esite>
-0.0284602828001848

> <r_i_glide_emodel>
-69.0451276873263

> <r_i_glide_energy>
-36.0811095237732

> <r_i_glide_einternal>
2.50893378257751

> <i_i_glide_confnum>
230

> <i_i_glide_posenum>
11

> <r_i_glide_eff_state_penalty>
-0

> <r_i_glide_rmsd>
0.114037678522601

> <s_glide_core_constrain_type>
snapped_core_restrain

$$$$
lig_CHEMBL3402761_1_21
                    3D
 Schrodinger Suite 2022-3.
 63 67  0  0  1  0            999 V2000
  -16.4763   25.1710  101.7327 H   0  0  0  0  0  0
  -16.9889   25.1218  100.7848 C   0  0  0  0  0  0
  -18.0563   25.9207  100.5732 C   0  0  0  0  0  0
  -18.3795   26.5913  101.3519 H   0  0  0  0  0  0
  -18.7820   25.8333   99.3132 C   0  0  0  0  0  0
  -19.9574   26.6853   98.9974 C   0  0  0  0  0  0
  -20.1532   27.8891   99.7054 C   0  0  0  0  0  0
  -19.4386   28.2308  100.4355 H   0  0  0  0  0  0
  -21.2683   28.7006   99.4275 C   0  0  0  0  0  0
  -21.4137   29.6240   99.9696 H   0  0  0  0  0  0
  -22.1869   28.3149   98.4346 C   0  0  0  0  0  0
  -23.0357   28.9492   98.2246 H   0  0  0  0  0  0
  -21.9932   27.1160   97.7196 C   0  0  0  0  0  0
  -22.9373   26.7461   96.6814 C   0  0  0  0  0  0
  -23.6869   26.4552   95.8498 N   0  0  0  0  0  0
  -20.8817   26.2915   98.0018 C   0  0  0  0  0  0
  -20.7440   25.3660   97.4636 H   0  0  0  0  0  0
  -18.3809   24.9892   98.4171 N   0  0  0  0  0  0
  -17.2633   24.1968   98.6256 N   0  0  0  0  0  0
  -16.9305   23.3281   97.4933 C   0  0  0  0  0  0
  -17.2214   23.8090   96.5577 H   0  0  0  0  0  0
  -15.8530   23.1788   97.4111 H   0  0  0  0  0  0
  -17.6294   21.9886   97.5990 C   0  0  0  0  0  0
  -16.9558   20.9308   98.2359 C   0  0  0  0  0  0
  -15.9567   21.0756   98.6216 H   0  0  0  0  0  0
  -17.5737   19.6804   98.3670 C   0  0  0  0  0  0
  -17.0513   18.8622   98.8414 H   0  0  0  0  0  0
  -18.8754   19.4912   97.8803 C   0  0  0  0  0  0
  -19.3175   18.5105   97.9875 H   0  0  0  0  0  0
  -19.5762   20.5410   97.2466 C   0  0  0  0  0  0
  -20.9083   20.1777   96.7240 C   0  0  0  0  0  0
  -21.6242   19.1593   97.2351 N   0  0  0  0  0  0
  -22.9332   19.0625   96.8828 C   0  0  0  0  0  0
  -23.4752   18.2111   97.2604 H   0  0  0  0  0  0
  -23.5481   20.0307   96.0720 C   0  0  0  0  0  0
  -24.8511   20.1014   95.6454 O   0  0  0  0  0  0
  -25.8856   19.4508   96.3462 C   0  0  0  0  0  0
  -26.6602   19.2361   95.6105 H   0  0  0  0  0  0
  -25.5839   18.4814   96.7427 H   0  0  0  0  0  0
  -26.5202   20.3085   97.4506 C   0  0  0  0  0  0
  -27.4590   19.7959   97.6343 H   0  0  0  0  0  0
  -25.9207   20.2451   98.3594 H   0  0  0  0  0  0
  -26.8638   21.7074   97.1770 N   0  0  0  0  0  0
  -25.6886   22.5794   97.1238 C   0  0  0  0  0  0
  -25.0623   22.4219   98.0014 H   0  0  0  0  0  0
  -25.0750   22.3396   96.2589 H   0  0  0  0  0  0
  -26.0525   24.0706   97.0200 C   0  0  0  0  0  0
  -26.5101   24.2937   96.0549 H   0  0  0  0  0  0
  -25.1506   24.6733   97.0975 H   0  0  0  0  0  0
  -26.9321   24.4428   98.0740 O   0  0  0  0  0  0
  -28.1272   23.6733   98.0695 C   0  0  0  0  0  0
  -28.6826   23.8444   97.1462 H   0  0  0  0  0  0
  -28.7627   23.9993   98.8924 H   0  0  0  0  0  0
  -27.7662   22.1889   98.2265 C   0  0  0  0  0  0
  -28.6843   21.5996   98.2226 H   0  0  0  0  0  0
  -27.3157   22.0382   99.2089 H   0  0  0  0  0  0
  -22.6618   20.9722   95.5679 C   0  0  0  0  0  0
  -22.9896   21.6925   94.8379 H   0  0  0  0  0  0
  -21.3359   20.9425   95.7598 N   0  0  0  0  0  0
  -18.9425   21.8003   97.1022 C   0  0  0  0  0  0
  -19.4595   22.6151   96.6155 H   0  0  0  0  0  0
  -16.5108   24.1937   99.7655 C   0  0  0  0  0  0
  -15.5173   23.4809   99.9180 O   0  0  0  0  0  0
  1  2  1  0  0  0
  2 62  1  0  0  0
  2  3  2  0  0  0
  3  4  1  0  0  0
  3  5  1  0  0  0
  5  6  1  0  0  0
  5 18  2  0  0  0
  6 16  1  0  0  0
  6  7  2  0  0  0
  7  8  1  0  0  0
  7  9  1  0  0  0
  9 10  1  0  0  0
  9 11  2  0  0  0
 11 12  1  0  0  0
 11 13  1  0  0  0
 13 14  1  0  0  0
 13 16  2  0  0  0
 14 15  3  0  0  0
 16 17  1  0  0  0
 18 19  1  0  0  0
 19 20  1  0  0  0
 19 62  1  0  0  0
 20 21  1  0  0  0
 20 22  1  0  0  0
 20 23  1  0  0  0
 23 60  1  0  0  0
 23 24  2  0  0  0
 24 25  1  0  0  0
 24 26  1  0  0  0
 26 27  1  0  0  0
 26 28  2  0  0  0
 28 29  1  0  0  0
 28 30  1  0  0  0
 30 31  1  0  0  0
 30 60  2  0  0  0
 31 59  1  0  0  0
 31 32  2  0  0  0
 32 33  1  0  0  0
 33 34  1  0  0  0
 33 35  2  0  0  0
 35 36  1  0  0  0
 35 57  1  0  0  0
 36 37  1  0  0  0
 37 38  1  0  0  0
 37 39  1  0  0  0
 37 40  1  0  0  0
 40 41  1  0  0  0
 40 42  1  0  0  0
 40 43  1  0  0  0
 43 54  1  0  0  0
 43 44  1  0  0  0
 44 45  1  0  0  0
 44 46  1  0  0  0
 44 47  1  0  0  0
 47 48  1  0  0  0
 47 49  1  0  0  0
 47 50  1  0  0  0
 50 51  1  0  0  0
 51 52  1  0  0  0
 51 53  1  0  0  0
 51 54  1  0  0  0
 54 55  1  0  0  0
 54 56  1  0  0  0
 57 58  1  0  0  0
 57 59  2  0  0  0
 60 61  1  0  0  0
 62 63  2  0  0  0
M  END
> <s_m_source_file>
ligprep_cmet.smi

> <i_m_source_file_index>
12

> <i_lp_mmshare_version>
53161

> <i_f3d_flags>
0

> <s_epik_input>
TiNDYyhbY0hdMSlbY0hdW2NIXVtjSF1jMS1jMltjSF1bY0hdYyg9TyluKG4yKVtDSDJdYzNbY0hdW2NIXVtjSF1jKFtjSF0zKS1jNG5bY0hdYyhbY0hdbjQpT1tDSDJdW0NIMl1ONVtDSDJdW0NIMl1PW0NIMl1bQ0gyXTU=

> <s_epik_cmdline>
J2VwaWtfcHl0aG9uJywgJy1waHQnLCAnMC4wJywgJy1waCcsICc3LjQnLCAnLXRuJywgJzgnLCAnLW1hJywgJzUwMCcsICctaW1hZScsICc8aW5maWxlLm1hZT4nLCAnLW9tYWUnLCAnPG91dGZpbGUubWFlPic=

> <r_lp_tautomer_probability>
1

> <r_epik_Ionization_Penalty>
  0.0176

> <r_epik_Ionization_Penalty_Charging>
  0.0000

> <r_epik_Ionization_Penalty_Neutral>
  0.0176

> <r_epik_State_Penalty>
 -0.0000

> <r_epik_Charging_Adjusted_Penalty>
1.83676e-08

> <i_epik_Tot_Q>
0

> <i_epik_Tot_abs_Q>
0

> <s_lp_Force_Field>
S-OPLS

> <r_lp_Energy>
78.4427

> <b_lp_Chiralities_Consistent>
1

> <s_lp_Variant>
lig_CHEMBL3402761_1_21-1

> <s_i_glide_gridfile>
glide-grid_cMET-4R1Y

> <i_i_glide_lignum>
12

> <i_i_glide_rotatable_bonds>
8

> <r_i_docking_score>
-8.75559257130634

> <r_i_glide_ligand_efficiency>
-0.236637637062333

> <r_i_glide_ligand_efficiency_sa>
-0.788529104191867

> <r_i_glide_ligand_efficiency_ln>
-1.89888276850395

> <r_i_glide_gscore>
-8.75559257130634

> <r_i_glide_lipo>
-4.5973207460615

> <r_i_glide_hbond>
-0.334912215666744

> <r_i_glide_metal>
-0

> <r_i_glide_rewards>
-1.53418084334881

> <r_i_glide_evdw>
-39.7678718566895

> <r_i_glide_ecoul>
-6.30329179763794

> <r_i_glide_erotb>
0.666601713506053

> <r_i_glide_esite>
-0.0218931172551704

> <r_i_glide_emodel>
-78.830482083855

> <r_i_glide_energy>
-46.0711636543274

> <r_i_glide_einternal>
3.84309482574463

> <i_i_glide_confnum>
3941

> <i_i_glide_posenum>
214

> <r_i_glide_eff_state_penalty>
-0

> <r_i_glide_rmsd>
0.109246565640259

> <s_glide_core_constrain_type>
snapped_core_restrain

$$$$
lig_CHEMBL3402749_500_9
                    3D
 Schrodinger Suite 2022-3.
 43 46  0  0  1  0            999 V2000
  -23.2641   21.0026   94.8353 H   0  0  0  0  0  0
  -22.6855   20.6866   95.6747 C   0  0  0  0  0  0
  -23.0708   20.0871   96.8265 C   0  0  0  0  0  0
  -24.4329   19.6523   97.2352 C   0  0  0  0  0  0
  -25.1261   19.7141   96.3953 H   0  0  0  0  0  0
  -24.8219   20.2871   98.0335 H   0  0  0  0  0  0
  -24.4323   18.6182   97.5810 H   0  0  0  0  0  0
  -21.9609   19.9258   97.6347 O   0  0  0  0  0  0
  -20.9377   20.3933   96.8500 C   0  0  0  0  0  0
  -19.5872   20.5663   97.3257 C   0  0  0  0  0  0
  -18.9315   19.4736   97.9119 C   0  0  0  0  0  0
  -19.4357   18.5215   98.0017 H   0  0  0  0  0  0
  -17.6128   19.6043   98.3841 C   0  0  0  0  0  0
  -17.1150   18.7576   98.8333 H   0  0  0  0  0  0
  -16.9465   20.8390   98.2739 C   0  0  0  0  0  0
  -15.9386   20.9414   98.6484 H   0  0  0  0  0  0
  -17.5935   21.9391   97.6749 C   0  0  0  0  0  0
  -16.8772   23.2724   97.5707 C   0  0  0  0  0  0
  -15.7973   23.1110   97.5385 H   0  0  0  0  0  0
  -17.1182   23.7286   96.6092 H   0  0  0  0  0  0
  -17.2497   24.1794   98.6580 N   0  0  0  0  0  0
  -18.3569   24.9553   98.3804 N   0  0  0  0  0  0
  -18.8065   25.8276   99.2249 C   0  0  0  0  0  0
  -19.9847   26.6385   98.8064 C   0  0  0  0  0  0
  -20.4211   27.7314   99.5906 C   0  0  0  0  0  0
  -19.9143   28.0243  100.4908 H   0  0  0  0  0  0
  -21.5246   28.4995   99.1707 C   0  0  0  0  0  0
  -21.9273   29.5624   99.9079 F   0  0  0  0  0  0
  -22.1990   28.1753   97.9784 C   0  0  0  0  0  0
  -23.0453   28.7663   97.6623 H   0  0  0  0  0  0
  -21.7666   27.0883   97.1957 C   0  0  0  0  0  0
  -22.4036   26.7832   96.0395 F   0  0  0  0  0  0
  -20.6611   26.3209   97.6039 C   0  0  0  0  0  0
  -20.3474   25.4997   96.9783 H   0  0  0  0  0  0
  -18.1292   25.9701  100.5057 C   0  0  0  0  0  0
  -18.4728   26.6834  101.2352 H   0  0  0  0  0  0
  -17.0561   25.1934  100.7829 C   0  0  0  0  0  0
  -16.5575   25.3005  101.7350 H   0  0  0  0  0  0
  -16.5437   24.2175   99.8231 C   0  0  0  0  0  0
  -15.5659   23.4983  100.0350 O   0  0  0  0  0  0
  -18.9174   21.8012   97.2014 C   0  0  0  0  0  0
  -19.4208   22.6430   96.7493 H   0  0  0  0  0  0
  -21.3148   20.6869   95.6352 N   0  0  0  0  0  0
  1  2  1  0  0  0
  2 43  1  0  0  0
  2  3  2  0  0  0
  3  4  1  0  0  0
  3  8  1  0  0  0
  4  5  1  0  0  0
  4  6  1  0  0  0
  4  7  1  0  0  0
  8  9  1  0  0  0
  9 10  1  0  0  0
  9 43  2  0  0  0
 10 41  1  0  0  0
 10 11  2  0  0  0
 11 12  1  0  0  0
 11 13  1  0  0  0
 13 14  1  0  0  0
 13 15  2  0  0  0
 15 16  1  0  0  0
 15 17  1  0  0  0
 17 18  1  0  0  0
 17 41  2  0  0  0
 18 19  1  0  0  0
 18 20  1  0  0  0
 18 21  1  0  0  0
 21 39  1  0  0  0
 21 22  1  0  0  0
 22 23  2  0  0  0
 23 24  1  0  0  0
 23 35  1  0  0  0
 24 33  1  0  0  0
 24 25  2  0  0  0
 25 26  1  0  0  0
 25 27  1  0  0  0
 27 28  1  0  0  0
 27 29  2  0  0  0
 29 30  1  0  0  0
 29 31  1  0  0  0
 31 32  1  0  0  0
 31 33  2  0  0  0
 33 34  1  0  0  0
 35 36  1  0  0  0
 35 37  2  0  0  0
 37 38  1  0  0  0
 37 39  1  0  0  0
 39 40  2  0  0  0
 41 42  1  0  0  0
M  END
> <s_m_source_file>
ligprep_cmet.smi

> <i_m_source_file_index>
5

> <i_lp_mmshare_version>
53161

> <i_f3d_flags>
0

> <s_epik_input>
W0NIM11jMVtjSF1uYyhvMSktYzJbY0hdW2NIXVtjSF1jKFtjSF0yKVtDSDJdbjNuYyhbY0hdW2NIXWMzPU8pLWM0W2NIXWMoRilbY0hdYyhGKVtjSF00

> <s_epik_cmdline>
J2VwaWtfcHl0aG9uJywgJy1waHQnLCAnMC4wJywgJy1waCcsICc3LjQnLCAnLXRuJywgJzgnLCAnLW1hJywgJzUwMCcsICctaW1hZScsICc8aW5maWxlLm1hZT4nLCAnLW9tYWUnLCAnPG91dGZpbGUubWFlPic=

> <r_lp_tautomer_probability>
1

> <r_epik_Ionization_Penalty>
  0.0000

> <r_epik_Ionization_Penalty_Charging>
  0.0000

> <r_epik_Ionization_Penalty_Neutral>
  0.0000

> <r_epik_State_Penalty>
 -0.0000

> <r_epik_Charging_Adjusted_Penalty>
1.65007e-08

> <i_epik_Tot_Q>
0

> <i_epik_Tot_abs_Q>
0

> <s_lp_Force_Field>
S-OPLS

> <r_lp_Energy>
49.1368

> <b_lp_Chiralities_Consistent>
1

> <s_lp_Variant>
lig_CHEMBL3402749_500_9-1

> <s_i_glide_gridfile>
glide-grid_cMET-4R1Y

> <i_i_glide_lignum>
5

> <i_i_glide_rotatable_bonds>
4

> <r_i_docking_score>
-8.38200919137027

> <r_i_glide_ligand_efficiency>
-0.299357471120367

> <r_i_glide_ligand_efficiency_sa>
-0.909025594443007

> <r_i_glide_ligand_efficiency_ln>
-1.93481382785211

> <r_i_glide_gscore>
-8.38200919137027

> <r_i_glide_lipo>
-3.9369187102633

> <r_i_glide_hbond>
-0.12005692593435

> <r_i_glide_metal>
-0

> <r_i_glide_rewards>
-2.09424130688007

> <r_i_glide_evdw>
-40.861988067627

> <r_i_glide_ecoul>
-4.60217618942261

> <r_i_glide_erotb>
0.538906920180458

> <r_i_glide_esite>
-0.0362733366782683

> <r_i_glide_emodel>
-51.2142973620563

> <r_i_glide_energy>
-45.4641642570496

> <r_i_glide_einternal>
3.06972455978394

> <i_i_glide_confnum>
221

> <i_i_glide_posenum>
3

> <r_i_glide_eff_state_penalty>
-0

> <r_i_glide_rmsd>
0.0917478892412852

> <s_glide_core_constrain_type>
snapped_core_restrain

$$$$
